Circuit: * C:\Users\Michael\Desktop\pw_my.asc

Direct Newton iteration failed to find .op point.  (Use ".option noopiter" to skip.)
Starting Gmin stepping
Gmin = 10
Gmin = 1.07374
Gmin = 0.115292
Gmin = 0.0123794
Gmin = 0.00132923
Gmin = 0.000142725
Gmin = 1.5325e-005
Gmin = 1.6455e-006
Gmin = 1.76685e-007
vernier = 0.5
vernier = 0.25
vernier = 0.125
vernier = 0.0625
Gmin = 1.21806e-007
vernier = 0.0833333
vernier = 0.111111
Gmin = 9.99635e-008
vernier = 0.148148
Gmin = 7.26731e-008
vernier = 0.197531
vernier = 0.263374
Gmin = 4.33407e-008
vernier = 0.351165
vernier = 0.46822
Gmin = 1.93405e-008
vernier = 0.624294
Gmin = 5.38477e-009
vernier = 0.832392
vernier = 1
Gmin = 7.67077e-010
Gmin = 8.23643e-011
Gmin = 8.8438e-012
Gmin = 9.49595e-013
Gmin = 1.01962e-013
Gmin = 0
Gmin stepping succeeded in finding the operating point.


Date: Fri May 24 14:52:35 2019
Total elapsed time: 0.193 seconds.

tnom = 27
temp = 27
method = trap
totiter = 1021
traniter = 0
tranpoints = 0
accept = 0
rejected = 0
matrix size = 29
fillins = 24
solver = Normal
Matrix Compiler1:     135 opcodes
Matrix Compiler2: off  [0.2]/0.4/0.4

