Circuit: * C:\Users\Michael\Desktop\pw_original.asc

Limiting rise time of source v1 to 0.0001
Limiting fall time of source v1 to 0.0001
Direct Newton iteration failed to find .op point.  (Use ".option noopiter" to skip.)
Starting Gmin stepping
Gmin = 10
Gmin = 1.07374
Gmin = 0.115292
Gmin = 0.0123794
Gmin = 0.00132923
Gmin = 0.000142725
Gmin = 1.5325e-005
Gmin = 1.6455e-006
Gmin = 1.76685e-007
Gmin = 1.89714e-008
Gmin = 2.03704e-009
Gmin = 2.18725e-010
Gmin = 2.34854e-011
Gmin = 2.52173e-012
Gmin = 2.70769e-013
Gmin = 0
Gmin stepping succeeded in finding the operating point.


Date: Mon May 27 07:54:24 2019
Total elapsed time: 6.834 seconds.

tnom = 27
temp = 27
method = modified trap
totiter = 321175
traniter = 320676
tranpoints = 159384
accept = 127816
rejected = 31568
matrix size = 35
fillins = 25
solver = Normal
Thread vector: 16.2/10.4[3] 4.8/5.3[1] 2.2/2.9[1] 0.3/1.9[1]  2592/500
Matrix Compiler1: 2.61 KB object code size  1.3/0.7/[0.4]
Matrix Compiler2: off  [0.7]/1.3/0.7

