Circuit: * C:\Users\Michael\Desktop\pw_ti.asc

Limiting rise time of source v3 to 5e-006
Limiting fall time of source v3 to 5e-006
Direct Newton iteration failed to find .op point.  (Use ".option noopiter" to skip.)
Starting Gmin stepping
Gmin = 10
Gmin = 1.07374
Gmin = 0.115292
Gmin = 0.0123794
Gmin = 0.00132923
Gmin = 0.000142725
Gmin = 1.5325e-005
Gmin = 1.6455e-006
Gmin = 1.76685e-007
Gmin = 1.89714e-008
Gmin = 2.03704e-009
Gmin = 2.18725e-010
Gmin = 2.34854e-011
Gmin = 2.52173e-012
Gmin = 2.70769e-013
Gmin = 0
Gmin stepping succeeded in finding the operating point.


Date: Mon May 27 06:37:28 2019
Total elapsed time: 0.441 seconds.

tnom = 27
temp = 27
method = modified trap
totiter = 11199
traniter = 10737
tranpoints = 4976
accept = 3908
rejected = 1068
matrix size = 34
fillins = 32
solver = Normal
Thread vector: 14.7/10.2[3] 4.9/4.6[1] 2.4/3.6[1] 0.3/2.0[1]  2592/500
Matrix Compiler1: 3.12 KB object code size  1.3/0.7/[0.5]
Matrix Compiler2: 3.49 KB object code size  0.7/1.1/[0.7]

